Version 4
SHEET 1 880 680
WIRE 208 64 208 32
WIRE 208 64 112 64
WIRE 240 64 208 64
WIRE 272 64 240 64
WIRE 112 80 112 64
WIRE 272 80 272 64
WIRE 272 240 272 160
WIRE 112 288 112 160
WIRE 208 288 112 288
WIRE 112 400 112 288
WIRE 272 400 272 336
WIRE 112 544 112 480
WIRE 192 544 112 544
WIRE 272 544 272 480
WIRE 272 544 192 544
WIRE 192 624 192 544
FLAG 208 -48 0
FLAG 192 624 0
FLAG 240 64 VCC
DATAFLAG 176 64 ""
DATAFLAG 272 208 ""
DATAFLAG 272 368 ""
DATAFLAG 160 288 ""
SYMBOL res 96 64 R0
SYMATTR InstName R1
SYMATTR Value 10k
SYMBOL res 96 384 R0
SYMATTR InstName R2
SYMATTR Value 4.7k
SYMBOL res 256 64 R0
SYMATTR InstName RC
SYMATTR Value 1K
SYMBOL res 256 384 R0
SYMATTR InstName RE
SYMATTR Value 430
SYMBOL voltage 208 48 R180
WINDOW 0 24 96 Left 2
WINDOW 3 24 16 Left 2
WINDOW 123 0 0 Left 0
WINDOW 39 0 0 Left 0
SYMATTR InstName V1
SYMATTR Value 12
SYMBOL npn 208 240 R0
SYMATTR InstName Q1
SYMATTR Value 2N3904
TEXT 96 648 Left 2 !.op
